Version 4
SHEET 1 1176 680
WIRE 144 64 -16 64
WIRE 368 64 240 64
WIRE 560 64 448 64
WIRE 640 64 560 64
WIRE 992 64 736 64
WIRE 1088 64 992 64
WIRE 560 112 560 64
WIRE -16 144 -16 64
WIRE 992 144 992 64
WIRE 1088 144 1088 64
WIRE 656 192 560 192
WIRE 848 192 656 192
WIRE 608 208 544 208
WIRE 848 224 848 192
WIRE -16 272 -16 224
WIRE 224 272 224 112
WIRE 224 272 -16 272
WIRE 608 272 608 256
WIRE 656 272 608 272
WIRE -16 288 -16 272
WIRE 544 304 544 208
WIRE 224 384 224 272
WIRE 544 384 224 384
WIRE 608 384 608 272
WIRE 608 384 544 384
WIRE 848 384 848 288
WIRE 848 384 608 384
WIRE 992 384 992 208
WIRE 992 384 848 384
WIRE 1088 384 1088 224
WIRE 1088 384 992 384
FLAG -16 288 0
FLAG 1088 64 LOAD
SYMBOL voltage -16 128 R0
WINDOW 123 0 0 Left 0
WINDOW 39 0 0 Left 0
SYMATTR InstName V1
SYMATTR Value -24
SYMBOL pmos 144 112 R270
SYMATTR InstName M1
SYMATTR Value AO6407
SYMBOL res 1072 128 R0
SYMATTR InstName LOAD
SYMATTR Value 10
SYMBOL sw 656 288 M180
WINDOW 3 21 -4 Left 2
SYMATTR InstName S1
SYMATTR Value MYSWITCH
SYMBOL voltage 544 288 R0
WINDOW 3 -29 132 Left 2
WINDOW 123 0 0 Left 0
WINDOW 39 0 0 Left 0
SYMATTR InstName V2
SYMATTR Value PULSE(0 5 2m 1u 1u 2 4 2)
SYMBOL res 640 96 R0
SYMATTR InstName R2
SYMATTR Value 1Meg
SYMBOL zener -544 128 R180
WINDOW 0 24 64 Left 2
WINDOW 3 -112 -17 Left 2
SYMATTR InstName D1
SYMATTR Value BZX84B10VL
SYMBOL pmos 736 112 M270
SYMATTR InstName M2
SYMATTR Value AO6407
SYMBOL res 544 96 R0
SYMATTR InstName R3
SYMATTR Value 47K
SYMBOL res 352 48 M90
WINDOW 0 0 56 VBottom 2
WINDOW 3 32 56 VTop 2
SYMATTR InstName CURRENT_MOS
SYMATTR Value 1
SYMBOL cap 976 144 R0
SYMATTR InstName C1
SYMATTR Value 500µ
SYMBOL cap 832 224 R0
SYMATTR InstName C2
SYMATTR Value 10µ
TEXT -50 312 Left 2 !.tran 5m
TEXT -744 432 Left 2 !.model MYSWITCH SW (Ron=1 Roff=100MEG Vt=1 Vh=0.5)
